3
fgf
H 2.2 1 2.2
H 0.2 -1 0.2
H 0.5 0.5 0.5
3
step 0
H 2.79999 2.49071 2.79999
H 12399.9 -1.30005 12399.9
H -24797 -0.0905402 -24797
3
step 1
H 3.39997 3.98132 3.39997
H 37198.6 -1.60035 37198.6
H -49594.4 -0.680789 -49594.4
3
step 2
H 3.99995 5.47193 3.99995
H 61997.2 -1.90182 61997.2
H -74391.9 -1.26963 -74391.9
3
step 3
H 4.59993 6.96254 4.59993
H 86795.9 -2.21358 86795.9
H -99189.4 -1.84623 -99189.4
3
step 4
H 5.19991 8.45315 5.19991
H 111595 -2.77062 111595
H -123987 -2.17375 -123987
3
step 5
H 5.79989 9.94376 5.79989
H 136393 -3.3487 136393
H -148784 -2.48552 -148784
3
step 6
H 6.39987 11.4344 6.39987
H 161192 -3.92928 161192
H -173582 -2.79541 -173582
3
step 7
H 6.99985 12.925 6.99985
H 185990 -4.51035 185990
H -198379 -3.10491 -198379
3
step 8
H 7.59983 14.4156 7.59983
H 210789 -5.09155 210789
H -223177 -3.4143 -223177
3
step 9
H 8.1998 15.9062 8.1998
H 235588 -5.67281 235588
H -247974 -3.72364 -247974
